134
Sr1 Ti1 O3
Sr      -5.916087517  -5.955046608  -5.955046608
Sr      -5.942212897  -6.012918027  -1.965990437
Sr      -5.875132743  -5.945609818   1.909296848
Sr      -5.942212897  -1.965990437  -6.012918027
Sr      -5.893873003  -1.970966339  -1.970966339
Sr      -5.877528933  -2.052656722   1.974995924
Sr      -5.875132743   1.909296848  -5.945609818
Sr      -5.877528933   1.974995924  -2.052656722
Sr      -5.837343209   1.991053893   1.991053893
Sr      -1.945590387  -6.012402794  -6.012402794
Sr      -1.959502333  -6.097781156  -1.982264458
Sr      -1.905948066  -5.966402634   1.945890998
Sr      -1.959502333  -1.982264458  -6.097781156
Mn      -1.956789317  -2.980608505  -2.980608505
Sr      -1.930505875  -1.990325643   2.005330374
Sr      -1.905948066   1.945890998  -5.966402634
Sr      -1.930505875   2.005330374  -1.990325643
Sr      -1.904334836   1.987978382   1.987978382
Sr       2.057975142  -5.949099475  -5.949099475
Sr       2.074358506  -5.963610085  -1.989767093
Sr       2.061883896  -5.917628261   1.921729444
Sr       2.074358506  -1.989767093  -5.963610085
Sr       2.014019782  -1.980237386  -1.980237386
Sr       2.034151378  -2.080760650   1.987722393
Sr       2.061883896   1.921729444  -5.917628261
Sr       2.034151378   1.987722393  -2.080760650
Sr       2.021540496   2.033594300   2.033594300
Ti      -7.801691819  -7.925199737  -7.925199737
Ti      -7.817015652  -7.919066960  -3.995330995
Ti      -7.842528308  -7.941881197  -0.025947342
Ti      -7.817015652  -3.995330995  -7.919066960
Ti      -7.843880668  -3.937508760  -3.937508760
Ti      -7.801447453  -3.976517850  -0.063461256
Ti      -7.842528308  -0.025947342  -7.941881197
Ti      -7.801447453  -0.063461256  -3.976517850
Ti      -7.743536621   0.003579464   0.003579464
Ti      -3.880240221  -7.933121987  -7.933121987
Ti      -3.900572080  -7.952652496  -4.011955977
Ti      -3.873811216  -7.989608485  -0.044007739
Ti      -3.900572080  -4.011955977  -7.952652496
Ti      -3.994867982  -4.021790157  -4.021790157
Ti      -3.773939488  -3.953103466  -0.021492573
Ti      -3.873811216  -0.044007739  -7.989608485
Ti      -3.773939488  -0.021492573  -3.953103466
Ti      -3.899045029  -0.080892466  -0.080892466
Ti       0.094942245  -7.925510150  -7.925510150
Ti       0.098544790  -7.955194120  -4.003984388
Ti       0.102366668  -7.963546110  -0.051833909
Ti       0.098544790  -4.003984388  -7.955194120
Ti       0.058394254  -4.025478589  -4.025478589
Ti      -0.000445099  -3.991098284  -0.040859599
Ti       0.102366668  -0.051833909  -7.963546110
Ti      -0.000445099  -0.040859599  -3.991098284
Ti      -0.167493220  -0.059210401  -0.059210401
O       -7.933062413  -5.896414691  -7.884153959
O       -7.919245081  -5.874607138  -3.930778074
O       -7.828540892  -5.899136633   0.007945643
O       -7.936467057  -1.938542750  -7.894931684
O       -7.927119590  -1.962680333  -3.927541304
O       -8.079880083  -1.892995803   0.012994090
O       -7.940047279   1.991299384  -7.889675293
O       -7.921937423   1.944955176  -3.928542337
O       -8.183334147   1.935917517   0.018639189
O       -3.990399626  -5.872310699  -7.788763538
O       -4.081061239  -5.880146866  -3.799486220
O       -3.980637278  -5.843054864  -0.100814955
O       -3.977440827  -1.925487243  -7.936747754
O       -3.325002138  -1.958581158  -3.731369841
O       -4.045505138  -1.908070643   0.102748889
O       -4.006180440   2.012655318  -7.799733359
O       -4.122597223   2.009782325  -3.983367804
O       -3.960702359   1.991656189   0.087076175
O       -0.064840451  -5.867096066  -7.799285557
O        0.063705165  -5.883009928  -3.791303026
O       -0.142485666  -5.860157561  -0.124580190
O       -0.056210392  -1.938331837  -7.979288377
O       -0.665522438  -1.909396698  -3.687068124
O        0.267842568  -1.840998599   0.121850706
O       -0.038706059   2.017813045  -7.808603685
O        0.088435935   1.973160160  -4.001291123
O        0.187022458   1.972694050   0.101510435
O       -7.933062413  -7.884153959  -5.896414691
O       -7.936467057  -7.894931684  -1.938542750
O       -7.940047279  -7.889675293   1.991299384
O       -7.919245081  -3.930778074  -5.874607138
O       -7.927119590  -3.927541304  -1.962680333
O       -7.921937423  -3.928542337   1.944955176
O       -7.828540892   0.007945643  -5.899136633
O       -8.079880083   0.012994090  -1.892995803
O       -8.183334147   0.018639189   1.935917517
O       -3.990399626  -7.788763538  -5.872310699
O       -3.977440827  -7.936747754  -1.925487243
O       -4.006180440  -7.799733359   2.012655318
O       -4.081061239  -3.799486220  -5.880146866
O       -3.325002138  -3.731369841  -1.958581158
O       -4.122597223  -3.983367804   2.009782325
O       -3.980637278  -0.100814955  -5.843054864
O       -4.045505138   0.102748889  -1.908070643
O       -3.960702359   0.087076175   1.991656189
O       -0.064840451  -7.799285557  -5.867096066
O       -0.056210392  -7.979288377  -1.938331837
O       -0.038706059  -7.808603685   2.017813045
O        0.063705165  -3.791303026  -5.883009928
O       -0.665522438  -3.687068124  -1.909396698
O        0.088435935  -4.001291123   1.973160160
O       -0.142485666  -0.124580190  -5.860157561
O        0.267842568   0.121850706  -1.840998599
O        0.187022458   0.101510435   1.972694050
O       -5.949628089  -7.849458170  -7.849458170
O       -5.970856378  -7.856303430  -3.887744460
O       -5.971986198  -7.968853660   0.040091769
O       -5.970856378  -3.887744460  -7.856303430
O       -5.901270000  -3.780426943  -3.780426943
O       -5.919684460  -3.834348167  -0.145888733
O       -5.971986198   0.040091769  -7.968853660
O       -5.919684460  -0.145888733  -3.834348167
O       -5.957582764   0.070247089   0.070247089
O       -2.023885015  -7.863638203  -7.863638203
O       -2.016990498  -7.894974612  -3.899525057
O       -1.994348575  -7.923257748   0.065919706
O       -2.016990498  -3.899525057  -7.894974612
O       -1.994502222  -4.225249116  -4.225249116
O       -2.010920076  -3.855156763   0.421052922
O       -1.994348575   0.065919706  -7.923257748
O       -2.010920076   0.421052922  -3.855156763
O       -1.969606744   0.060167740   0.060167740
O        1.933283330  -7.838833429  -7.838833429
O        1.956193800  -7.861718208  -3.909913969
O        1.928494438  -7.697280581   0.039359623
O        1.956193800  -3.909913969  -7.861718208
O        1.902584893  -3.782319823  -3.782319823
O        1.875253728  -4.019910602  -0.177270682
O        1.928494438   0.039359623  -7.697280581
O        1.875253728  -0.177270682  -4.019910602
