134
Sr1 Ti1 O3
Sr      -5.919343877  -5.919343877  -5.919343877
Sr      -5.919250054  -5.919250054  -1.970911456
Sr      -5.922183909  -5.922183909   1.972367546
Sr      -5.919250054  -1.970911456  -5.919250054
Sr      -5.919156305  -1.971005321  -1.971005321
Sr      -5.922184876  -1.968021113   1.972367515
Sr      -5.922183909   1.972367546  -5.922183909
Sr      -5.922184876   1.972367515  -1.968021113
Sr      -5.915612109   1.972377105   1.972377105
Sr      -1.970911456  -5.919250054  -5.919250054
Sr      -1.971005321  -5.919156305  -1.971005321
Sr      -1.968021113  -5.922184876   1.972367515
Sr      -1.971005321  -1.971005321  -5.919156305
Sr      -1.971099023  -1.971099023  -1.971099023
Sr      -1.968020273  -1.968020273   1.972367451
Sr      -1.968021113   1.972367515  -5.922184876
Sr      -1.968020273   1.972367451  -1.968020273
Sr      -1.974608644   1.972377082   1.972377082
Sr       1.972367546  -5.922183909  -5.922183909
Sr       1.972367515  -5.922184876  -1.968021113
Sr       1.972377105  -5.915612109   1.972377105
Sr       1.972367515  -1.968021113  -5.922184876
Sr       1.972367451  -1.968020273  -1.968020273
Sr       1.972377082  -1.974608644   1.972377082
Sr       1.972377105   1.972377105  -5.915612109
Sr       1.972377082   1.972377082  -1.974608644
Sr       1.972361201   1.972361201   1.972361201
Ti      -7.889883012  -7.889883012  -7.889883012
Ti      -7.886090853  -7.886090853  -3.945204823
Ti      -7.889877069  -7.889877069  -0.000540980
Ti      -7.886090853  -3.945204823  -7.886090853
Ti      -7.893275548  -3.945140427  -3.945140427
Ti      -7.886089798  -3.945204904  -0.004149798
Ti      -7.889877069  -0.000540980  -7.889877069
Ti      -7.886089798  -0.004149798  -3.945204904
Ti      -7.889871235  -0.000547166  -0.000547166
Ti      -3.945204823  -7.886090853  -7.886090853
Ti      -3.945140427  -7.893275548  -3.945140427
Ti      -3.945204904  -7.886089798  -0.004149798
Ti      -3.945140427  -3.945140427  -7.893275548
Mn      -3.945662739  -3.945662739  -3.945662739
Ti      -3.945140417  -3.945140417   0.002666873
Ti      -3.945204904  -0.004149798  -7.886089798
Ti      -3.945140417   0.002666873  -3.945140417
Ti      -3.945205138  -0.004151239  -0.004151239
Ti      -0.000540980  -7.889877069  -7.889877069
Ti      -0.004149798  -7.886089798  -3.945204904
Ti      -0.000547166  -7.889871235  -0.000547166
Ti      -0.004149798  -3.945204904  -7.886089798
Ti       0.002666873  -3.945140417  -3.945140417
Ti      -0.004151239  -3.945205138  -0.004151239
Ti      -0.000547166  -0.000547166  -7.889871235
Ti      -0.004151239  -0.004151239  -3.945205138
Ti      -0.000553460  -0.000553460  -0.000553460
O       -7.889374442  -5.918166622  -7.889374442
O       -7.857687398  -5.906796361  -3.945046409
O       -7.889374141  -5.918162761  -0.000707419
O       -7.889380878  -1.971876599  -7.889380878
O       -7.857644032  -1.983347301  -3.945046392
O       -7.889380527  -1.971880349  -0.000700928
O       -7.889387019   1.972474475  -7.889387019
O       -7.873075821   1.972431051  -3.945041151
O       -7.889385174   1.972474542  -0.000676643
O       -3.945046409  -5.906796361  -7.857687398
O       -3.945292484  -5.765520125  -3.945292484
O       -3.945046275  -5.906787236  -0.032456945
O       -3.945046392  -1.983347301  -7.857644032
O       -3.945292418  -2.125028714  -3.945292418
O       -3.945046226  -1.983356331  -0.032500388
O       -3.945041151   1.972431051  -7.873075821
O       -3.945101740   1.972391719  -3.945101740
O       -3.945041040   1.972431126  -0.017088158
O       -0.000707419  -5.918162761  -7.889374141
O       -0.032456945  -5.906787236  -3.945046275
O       -0.000707608  -5.918158834  -0.000707608
O       -0.000700928  -1.971880349  -7.889380527
O       -0.032500388  -1.983356331  -3.945046226
O       -0.000701165  -1.971884074  -0.000701165
O       -0.000676643   1.972474542  -7.889385174
O       -0.017088158   1.972431126  -3.945041040
O       -0.000678323   1.972474611  -0.000678323
O       -7.889374442  -7.889374442  -5.918166622
O       -7.889380878  -7.889380878  -1.971876599
O       -7.889387019  -7.889387019   1.972474475
O       -7.857687398  -3.945046409  -5.906796361
O       -7.857644032  -3.945046392  -1.983347301
O       -7.873075821  -3.945041151   1.972431051
O       -7.889374141  -0.000707419  -5.918162761
O       -7.889380527  -0.000700928  -1.971880349
O       -7.889385174  -0.000676643   1.972474542
O       -3.945046409  -7.857687398  -5.906796361
O       -3.945046392  -7.857644032  -1.983347301
O       -3.945041151  -7.873075821   1.972431051
O       -3.945292484  -3.945292484  -5.765520125
O       -3.945292418  -3.945292418  -2.125028714
O       -3.945101740  -3.945101740   1.972391719
O       -3.945046275  -0.032456945  -5.906787236
O       -3.945046226  -0.032500388  -1.983356331
O       -3.945041040  -0.017088158   1.972431126
O       -0.000707419  -7.889374141  -5.918162761
O       -0.000700928  -7.889380527  -1.971880349
O       -0.000676643  -7.889385174   1.972474542
O       -0.032456945  -3.945046275  -5.906787236
O       -0.032500388  -3.945046226  -1.983356331
O       -0.017088158  -3.945041040   1.972431126
O       -0.000707608  -0.000707608  -5.918158834
O       -0.000701165  -0.000701165  -1.971884074
O       -0.000678323  -0.000678323   1.972474611
O       -5.918166622  -7.889374442  -7.889374442
O       -5.906796361  -7.857687398  -3.945046409
O       -5.918162761  -7.889374141  -0.000707419
O       -5.906796361  -3.945046409  -7.857687398
O       -5.765520125  -3.945292484  -3.945292484
O       -5.906787236  -3.945046275  -0.032456945
O       -5.918162761  -0.000707419  -7.889374141
O       -5.906787236  -0.032456945  -3.945046275
O       -5.918158834  -0.000707608  -0.000707608
O       -1.971876599  -7.889380878  -7.889380878
O       -1.983347301  -7.857644032  -3.945046392
O       -1.971880349  -7.889380527  -0.000700928
O       -1.983347301  -3.945046392  -7.857644032
O       -2.125028714  -3.945292418  -3.945292418
O       -1.983356331  -3.945046226  -0.032500388
O       -1.971880349  -0.000700928  -7.889380527
O       -1.983356331  -0.032500388  -3.945046226
O       -1.971884074  -0.000701165  -0.000701165
O        1.972474475  -7.889387019  -7.889387019
O        1.972431051  -7.873075821  -3.945041151
O        1.972474542  -7.889385174  -0.000676643
O        1.972431051  -3.945041151  -7.873075821
O        1.972391719  -3.945101740  -3.945101740
O        1.972431126  -3.945041040  -0.017088158
O        1.972474542  -0.000676643  -7.889385174
O        1.972431126  -0.017088158  -3.945041040
O        1.972474611  -0.000678323  -0.000678323
