179
Sr1 Ti1 O3
Sr      -5.987453865  -5.987453865  -9.890650310
Sr      -5.984778525  -5.984778525  -5.971760780
Sr      -5.971984340  -5.971984340  -1.992325327
Sr      -6.006213316  -6.006213316   1.962326974
Sr      -5.994640692  -2.004168312  -9.900156749
Sr      -5.985574575  -1.976774870  -6.000502377
Sr      -6.025965042  -1.961344593  -1.998740921
Sr      -6.008349879  -1.967492377   1.954982272
Sr      -5.967810416   1.927715729  -9.917213796
Sr      -5.960312289   1.924373157  -5.951919916
Sr      -5.957658546   1.935436490  -2.032109183
Sr      -5.967628626   1.918493124   1.912678087
Sr      -2.004168312  -5.994640692  -9.900156749
Sr      -1.976774870  -5.985574575  -6.000502377
Sr      -1.961344593  -6.025965042  -1.998740921
Sr      -1.967492377  -6.008349879   1.954982272
Sr      -1.998920392  -1.998920392  -9.910858814
Sr      -1.980499588  -1.980499588  -6.031247544
Sr      -1.917321802  -1.917321802  -2.005714590
Sr      -1.975389209  -1.975389209   1.949429393
Sr      -2.010574261   1.930241022  -9.930925441
Sr      -2.009654768   1.918568407  -5.953890541
Sr      -2.005913302   1.938927241  -2.042956904
Sr      -2.001668371   1.911671118   1.912390860
Sr       1.927715729  -5.967810416  -9.917213796
Sr       1.924373157  -5.960312289  -5.951919916
Sr       1.935436490  -5.957658546  -2.032109183
Sr       1.918493124  -5.967628626   1.912678087
Sr       1.930241022  -2.010574261  -9.930925441
Sr       1.918568407  -2.009654768  -5.953890541
Sr       1.938927241  -2.005913302  -2.042956904
Sr       1.911671118  -2.001668371   1.912390860
Sr       1.928927481   1.928927481  -9.908982908
Sr       1.932784759   1.932784759  -5.973671150
Sr       1.932595584   1.932595584  -2.032947708
Sr       1.932841348   1.932841348   1.915361110
Ti      -7.961681622  -7.961681622 -11.895867708
Ti      -7.959162642  -7.959162642  -7.957490699
Ti      -7.948899428  -7.948899428  -4.011922514
Ti      -7.949735835  -7.949735835  -0.073725316
Ti      -7.963694997  -4.006092645 -11.926957478
Ti      -7.970052651  -4.007815094  -7.942994463
Ti      -7.952055639  -4.001416130  -4.008841104
Ti      -7.979394419  -3.999310337  -0.062709107
Ti      -7.963575163  -0.056626800 -11.901192894
Ti      -7.962552647  -0.059050385  -7.964174421
Ti      -7.956558661  -0.054728114  -4.021140733
Ti      -7.962593238  -0.053274764  -0.070079873
Ti      -4.006092645  -7.963694997 -11.926957478
Ti      -4.007815094  -7.970052651  -7.942994463
Ti      -4.001416130  -7.952055639  -4.008841104
Ti      -3.999310337  -7.979394419  -0.062709107
Ti      -4.020387358  -4.020387358 -11.771019506
Ti      -4.012659626  -4.012659626  -7.991507602
Mn      -3.977742313  -3.977742313  -4.083570045
Ti      -3.984131196  -3.984131196   0.153385032
Ti      -4.007825531  -0.086401472 -11.924204353
Ti      -4.008605531  -0.062760420  -7.967768767
Ti      -4.003188831  -0.089516711  -3.992916545
Ti      -4.002007975  -0.076422467  -0.088438994
Ti      -0.056626800  -7.963575163 -11.901192894
Ti      -0.059050385  -7.962552647  -7.964174421
Ti      -0.054728114  -7.956558661  -4.021140733
Ti      -0.053274764  -7.962593238  -0.070079873
Ti      -0.086401472  -4.007825531 -11.924204353
Ti      -0.062760420  -4.008605531  -7.967768767
Ti      -0.089516711  -4.003188831  -3.992916545
Ti      -0.076422467  -4.002007975  -0.088438994
Ti      -0.060627183  -0.060627183 -11.904294193
Ti      -0.058563103  -0.058563103  -7.973780505
Ti      -0.054886790  -0.054886790  -4.026615059
Ti      -0.052419183  -0.052419183  -0.070556480
O       -7.844965231  -5.879103171 -11.798116134
O       -7.842741947  -5.879605824  -7.840786286
O       -7.833029000  -5.880401265  -3.900751276
O       -7.830311998  -5.877597080   0.054225943
O       -7.841496203  -1.943122320 -11.802867450
O       -7.853127066  -1.941415471  -7.837642914
O       -7.849076812  -1.940108142  -3.912919725
O       -7.852239854  -1.943970493   0.065737986
O       -7.847927258   2.001074998 -11.769764274
O       -7.844583233   2.003188441  -7.862801698
O       -7.838448088   2.005724012  -3.887872224
O       -7.837074926   2.002984674   0.038187335
O       -3.896119087  -5.869620117 -11.749948515
O       -3.894341361  -5.873579196  -7.917474520
O       -3.897363555  -5.812269035  -3.678110031
O       -3.880530610  -5.805048173  -0.228444161
O       -3.892748048  -1.947998636 -11.762206274
O       -3.893175180  -1.941666584  -7.905674010
O       -3.900304792  -1.996270064  -3.659097218
O       -3.882476152  -1.993138600  -0.237643295
O       -3.895689779   2.004470981 -11.958158979
O       -3.912359277   2.001665305  -7.699095498
O       -3.917819462   2.006354223  -4.055533740
O       -3.922669943   2.004431131   0.165806966
O        0.040404225  -5.875932605 -11.812688498
O        0.036899052  -5.878834584  -7.830172235
O        0.026212042  -5.878009439  -3.901311021
O        0.011145850  -5.874759171   0.052735276
O        0.040648123  -1.942610091 -11.804312486
O        0.047682195  -1.939808689  -7.836863281
O        0.043666842  -1.940258815  -3.900952909
O        0.036348844  -1.942231987   0.053525998
O        0.040672719   2.003044009 -11.770413918
O        0.050279048   2.003329364  -7.865302843
O        0.043542602   2.003884239  -3.889507965
O        0.044158052   2.001008358   0.041205873
O       -7.847597409  -7.847597409  -9.824787496
O       -7.870417353  -7.870417353  -5.882255413
O       -7.857715957  -7.857715957  -1.932124187
O       -7.874551760  -7.874551760   2.017199583
O       -7.966029450  -3.915823868  -9.826534875
O       -7.698912941  -3.919855429  -5.864491310
O       -8.018774639  -3.907484285  -1.936083860
O       -7.694537832  -3.924762572   1.988362944
O       -7.838200029   0.008895727  -9.827781392
O       -7.870235099   0.037886004  -5.882710158
O       -7.859353187   0.015706596  -1.930374777
O       -7.870946322   0.038828321   2.013765125
O       -3.915823868  -7.966029450  -9.826534875
O       -3.919855429  -7.698912941  -5.864491310
O       -3.907484285  -8.018774639  -1.936083860
O       -3.924762572  -7.694537832   1.988362944
O       -3.906093745  -3.906093745  -9.853601910
O       -3.928542124  -3.928542124  -5.882939374
O       -3.928937763  -3.928937763   1.967537297
O       -3.920958850   0.117057829  -9.832135870
O       -3.909479147  -0.147561735  -5.847265779
O       -3.915804317   0.192454294  -1.935480650
O       -3.910853335  -0.137183078   1.971986928
O        0.008895727  -7.838200029  -9.827781392
O        0.037886004  -7.870235099  -5.882710158
O        0.015706596  -7.859353187  -1.930374777
O        0.038828321  -7.870946322   2.013765125
O        0.117057829  -3.920958850  -9.832135870
O       -0.147561735  -3.909479147  -5.847265779
O        0.192454294  -3.915804317  -1.935480650
O       -0.137183078  -3.910853335   1.971986928
O        0.009341487   0.009341487  -9.831681788
O        0.032477074   0.032477074  -5.881932375
O        0.017621094   0.017621094  -1.930271233
O        0.033846284   0.033846284   2.012078177
O       -5.879103171  -7.844965231 -11.798116134
O       -5.879605824  -7.842741947  -7.840786286
O       -5.880401265  -7.833029000  -3.900751276
O       -5.877597080  -7.830311998   0.054225943
O       -5.869620117  -3.896119087 -11.749948515
O       -5.873579196  -3.894341361  -7.917474520
O       -5.812269035  -3.897363555  -3.678110031
O       -5.805048173  -3.880530610  -0.228444161
O       -5.875932605   0.040404225 -11.812688498
O       -5.878834584   0.036899052  -7.830172235
O       -5.878009439   0.026212042  -3.901311021
O       -5.874759171   0.011145850   0.052735276
O       -1.943122320  -7.841496203 -11.802867450
O       -1.941415471  -7.853127066  -7.837642914
O       -1.940108142  -7.849076812  -3.912919725
O       -1.943970493  -7.852239854   0.065737986
O       -1.947998636  -3.892748048 -11.762206274
O       -1.941666584  -3.893175180  -7.905674010
O       -1.996270064  -3.900304792  -3.659097218
O       -1.993138600  -3.882476152  -0.237643295
O       -1.942610091   0.040648123 -11.804312486
O       -1.939808689   0.047682195  -7.836863281
O       -1.940258815   0.043666842  -3.900952909
O       -1.942231987   0.036348844   0.053525998
O        2.001074998  -7.847927258 -11.769764274
O        2.003188441  -7.844583233  -7.862801698
O        2.005724012  -7.838448088  -3.887872224
O        2.002984674  -7.837074926   0.038187335
O        2.004470981  -3.895689779 -11.958158979
O        2.001665305  -3.912359277  -7.699095498
O        2.006354223  -3.917819462  -4.055533740
O        2.004431131  -3.922669943   0.165806966
O        2.003044009   0.040672719 -11.770413918
O        2.003329364   0.050279048  -7.865302843
O        2.003884239   0.043542602  -3.889507965
O        2.001008358   0.044158052   0.041205873
